[General]
network = Network
sim-time-limit = 200s
repeat = 115
output-vector-file = ${resultdir}/${repetition}.vec

Network.nodeTx.gen.generationInterval=exponential(10/(${repetition} + 1))
Network.nodeTx.gen.packetByteSize = 12500
Network.nodeTx.queue.bufferSize = 2000000

Network.queue.bufferSize = 200

Network.nodeRx.queue.bufferSize = 200
